CRYSTAL
PRIMVEC
 25.00000000000000 0.00000000000000 0.00000000000000
 0.00000000000000 25.00000000000000 0.00000000000000
 0.00000000000000 0.00000000000000 25.00000000000000
PRIMCOORD
 55 1
 47     0.00000000000000     0.00000000000000     0.00000000000000
 47     2.46013890600000     0.00000000000000    -1.52044946090000
 47     2.46013890600000     0.00000000000000     1.52044946090000
 47    -2.46013890600000     0.00000000000000    -1.52044946090000
 47    -2.46013890600000     0.00000000000000     1.52044946090000
 47    -1.52044946090000     2.46013890600000     0.00000000000000
 47     1.52044946090000     2.46013890600000     0.00000000000000
 47    -1.52044946090000    -2.46013890600000     0.00000000000000
 47     1.52044946090000    -2.46013890600000     0.00000000000000
 47     0.00000000000000    -1.52044946090000     2.46013890600000
 47     0.00000000000000     1.52044946090000     2.46013890600000
 47     0.00000000000000    -1.52044946090000    -2.46013890600000
 47     0.00000000000000     1.52044946090000    -2.46013890600000
 47     4.92027781200000     0.00000000000000    -3.04089892190000
 47     4.92027781200000     0.00000000000000     0.00000000000000
 47     4.92027781200000     0.00000000000000     3.04089892190000
 47    -4.92027781200000     0.00000000000000    -3.04089892190000
 47    -4.92027781200000     0.00000000000000     0.00000000000000
 47    -4.92027781200000     0.00000000000000     3.04089892190000
 47    -3.04089892190000     4.92027781200000     0.00000000000000
 47     0.00000000000000     4.92027781200000     0.00000000000000
 47     3.04089892190000     4.92027781200000     0.00000000000000
 47    -3.04089892190000    -4.92027781200000     0.00000000000000
 47     0.00000000000000    -4.92027781200000     0.00000000000000
 47     3.04089892190000    -4.92027781200000     0.00000000000000
 47     0.00000000000000    -3.04089892190000     4.92027781200000
 47     0.00000000000000     0.00000000000000     4.92027781200000
 47     0.00000000000000     3.04089892190000     4.92027781200000
 47     0.00000000000000    -3.04089892190000    -4.92027781200000
 47     0.00000000000000     0.00000000000000    -4.92027781200000
 47     0.00000000000000     3.04089892190000    -4.92027781200000
 47     2.46013890600000    -1.52044946090000     3.98058836690000
 47     2.46013890600000     1.52044946090000     3.98058836690000
 47     2.46013890600000    -1.52044946090000    -3.98058836690000
 47     2.46013890600000     1.52044946090000    -3.98058836690000
 47    -2.46013890600000    -1.52044946090000     3.98058836690000
 47    -2.46013890600000     1.52044946090000     3.98058836690000
 47    -2.46013890600000    -1.52044946090000    -3.98058836690000
 47    -2.46013890600000     1.52044946090000    -3.98058836690000
 47     3.98058836690000     2.46013890600000    -1.52044946090000
 47     3.98058836690000     2.46013890600000     1.52044946090000
 47    -3.98058836690000     2.46013890600000    -1.52044946090000
 47    -3.98058836690000     2.46013890600000     1.52044946090000
 46     3.98058836690000    -2.46013890600000    -1.52044946090000
 47     3.98058836690000    -2.46013890600000     1.52044946090000
 47    -3.98058836690000    -2.46013890600000    -1.52044946090000
 47    -3.98058836690000    -2.46013890600000     1.52044946090000
 47    -1.52044946090000     3.98058836690000     2.46013890600000
 47     1.52044946090000     3.98058836690000     2.46013890600000
 47    -1.52044946090000    -3.98058836690000     2.46013890600000
 47     1.52044946090000    -3.98058836690000     2.46013890600000
 47    -1.52044946090000     3.98058836690000    -2.46013890600000
 47     1.52044946090000     3.98058836690000    -2.46013890600000
 47    -1.52044946090000    -3.98058836690000    -2.46013890600000
 47     1.52044946090000    -3.98058836690000    -2.46013890600000
