CRYSTAL
PRIMVEC
 12.18933240581965 0.00000000000000 0.00000000000000
 0.00000000000000 13.49248419911108 0.00000000000000
 0.00000000000000 0.00000000000000 5.66087318636201
PRIMCOORD
 12 1
  6     0.00000000000000     1.39900000000000     0.00000000000000
  6     1.21150000000000     0.69950000000000     0.00000000000000
  6     1.21150000000000    -0.69950000000000     0.00000000000000
  6     0.00000000000000    -1.39900000000000     0.00000000000000
  6    -1.21150000000000    -0.69950000000000     0.00000000000000
  6    -1.21150000000000     0.69950000000000     0.00000000000000
  1     0.00000000000000     2.50000000000000     0.00000000000000
  1     2.16510000000000     1.25000000000000     0.00000000000000
  1     2.16510000000000    -1.25000000000000     0.00000000000000
  1     0.00000000000000    -2.50000000000000     0.00000000000000
  1    -2.16510000000000    -1.25000000000000     0.00000000000000
  1    -2.16510000000000     1.25000000000000     0.00000000000000
