CRYSTAL
PRIMVEC
 3.16429193819158 0.00000000000000 0.00000000000000
 -1.58214596909579 2.74035720346421 0.00000000000000
 0.00000000000000 0.00000000000000 20.00000000000000
PRIMCOORD
 6 1
 42     0.00000000000000     0.00000012232558    -3.35539354458247
 16     0.00000000000000     1.82690492463505    -1.80163841956158
 16     0.00000000000000     1.82690492463505    -4.90892260582894
 42     0.00000000000000     0.00000012232558     3.35539354458247
 16     0.00000000000000     1.82690492463505     4.90892260582894
 16     0.00000000000000     1.82690492463505     1.80163841956158
