CRYSTAL
PRIMVEC
 3.25000000000000 0.00000000000000 0.00000000000000
 -1.62500000000000 2.81458256228500 0.00000000000000
 0.00000000000000 0.00000000000000 5.20579999998500
PRIMCOORD
 4 1
 30    -0.00000000000007     1.87638837485676     0.00000000000000
 30     1.62500000000006     0.93819418742824     2.60289999999250
  8    -0.00000000000007     1.87638837485676     1.98861559999427
  8     1.62500000000006     0.93819418742824     4.59151559998677
